Circuit: * C:\users\user\Documents\sims\C\GALI-74_Test_Circuit-v2.asc

WARNING: Node N004 is floating.

.OP point found by inspection.

Date: Thu Sep 11 16:53:11 2025
Total elapsed time: 0.107 seconds.

tnom = 27
temp = 27
method = trap
totiter = 0
traniter = 0
tranpoints = 0
accept = 0
rejected = 0
matrix size = 13
fillins = 1
solver = Normal

