Circuit: * C:\users\user\Documents\sims\BGA427-LNA\BGA427_Test_Circuit.asc

WARNING: Node N003 is floating.

.OP point found by inspection.

Date: Thu Sep 11 15:08:30 2025
Total elapsed time: 0.093 seconds.

tnom = 27
temp = 27
method = trap
totiter = 0
traniter = 0
tranpoints = 0
accept = 0
rejected = 0
matrix size = 11
fillins = 1
solver = Normal

