Circuit: * C:\users\user\Documents\sims\MAR-6\MAR-6_Test_Circuit.asc

WARNING: Node N003 is floating.

.OP point found by inspection.

Date: Thu Sep 11 15:51:05 2025
Total elapsed time: 0.159 seconds.

tnom = 27
temp = 27
method = trap
totiter = 0
traniter = 0
tranpoints = 0
accept = 0
rejected = 0
matrix size = 10
fillins = 1
solver = Normal

